/*--------------------------------*- C++ -*----------------------------------*\
| =========                 |                                                 |
| \\      /  F ield         | OpenFOAM: The Open Source CFD Toolbox           |
|  \\    /   O peration     | Version:  2.1.x                                 |
|   \\  /    A nd           | Web:      www.OpenFOAM.org                      |
|    \\/     M anipulation  |                                                 |
\*---------------------------------------------------------------------------*/
FoamFile
{
    version     2.0;
    format      ascii;
    class       dictionary;
    object      blockMeshDict;
}
// * * * * * * * * * * * * * * * * * * * * * * * * * * * * * * * * * * * * * //

convertToMeters 1;

vertices
(
    (0                0                0)
    (0.996194698092  -0.0871557427477  0)
    (0.996194698092   0.0871557427477  0)
    (0                0                0.1)
    (0.996194698092  -0.0871557427477  0.1)
    (0.996194698092   0.0871557427477  0.1)
);

blocks
(
    hex ( 0  1  2  0  3  4  5  3) (10 1 1) simpleGrading (1 1 1)
);

edges
(
    arc  1  2 (1  0  0)
    arc  4  5 (1  0  0.1)
);

boundary
(
    fixedWalls
    {
        type wall;
        faces
        (
            ( 1  2  5  4)
        );
    }

    axis
    {
        type empty;
        faces
        (
            ( 0  3  3  0)
        );
    }

    wedge1
    {
        type wedge;
        faces
        (
            ( 0  1  4  3)
        );
    }

    wedge2
    {
        type wedge;
        faces
        (
            ( 0  3  5  2)
        );
    }

    frontAndBack
    {
        type empty;
        faces
        (
            (0 2 1 0)
            (3 4 5 3)
        );
    }
);

mergePatchPairs
(
);

// ************************************************************************* //
