/*--------------------------------*- C++ -*----------------------------------*\
| =========                 |                                                 |
| \\      /  F ield         | OpenFOAM: The Open Source CFD Toolbox           |
|  \\    /   O peration     | Version:  4.1                                   |
|   \\  /    A nd           | Web:      www.OpenFOAM.org                      |
|    \\/     M anipulation  |                                                 |
\*---------------------------------------------------------------------------*/
FoamFile
{
    version     2.0;
    format      ascii;
    class       dictionary;
    object      blockMeshDict;
}
// * * * * * * * * * * * * * * * * * * * * * * * * * * * * * * * * * * * * * //

convertToMeters 1;

vertices
(
    ( 0.5    0  0)
    (   0  0.5  0)
    (-0.5    0  0)
    (   0 -0.5  0)
    ( 0.5    0  2)
    (   0  0.5  2)
    (-0.5    0  2)
    (   0 -0.5  2)

    (   1    0  0)
    (   0    1  0)
    (  -1    0  0)
    (   0   -1  0)
    (   1    0  2)
    (   0    1  2)
    (  -1    0  2)
    (   0   -1  2)
);

blocks
(
    hex ( 0  1  2  3  4  5  6  7) (10 10 10) simpleGrading (1 1 1)
    hex ( 0  8  9  1  4 12 13  5) (10 10 10) simpleGrading (1 1 1)
    hex ( 1  9 10  2  5 13 14  6) (10 10 10) simpleGrading (1 1 1)
    hex ( 2 10 11  3  6 14 15  7) (10 10 10) simpleGrading (1 1 1)
    hex ( 3 11  8  0  7 15 12  4) (10 10 10) simpleGrading (1 1 1)
);

edges
(
    arc  8  9 ( 0.7071067812  0.7071067812  0)
    arc  9 10 (-0.7071067812  0.7071067812  0)
    arc 10 11 (-0.7071067812 -0.7071067812  0)
    arc 11  8 ( 0.7071067812 -0.7071067812  0)
    arc 12 13 ( 0.7071067812  0.7071067812  2)
    arc 13 14 (-0.7071067812  0.7071067812  2)
    arc 14 15 (-0.7071067812 -0.7071067812  2)
    arc 15 12 ( 0.7071067812 -0.7071067812  2)
);

boundary
(
    fixedWalls
    {
        type wall;
        faces
        (
            ( 4  5  6  7)
            ( 3  2  1  0)
            ( 0  1  9  8)
            ( 1  2 10  9)
            ( 2  3 11 10)
            ( 3  0  8 11)
            ( 8  9 13 12)
            ( 9 10 14 13)
            ( 5  4 12 13)
            ( 6  5 13 14)
            ( 7  6 14 15)
            ( 4  7 15 12)
            (10 11 15 14)
            (11  8 12 15)
        );
    }
);

mergePatchPairs
(
);

// ************************************************************************* //
